<?xml version='1.0' encoding='utf-8'?>
<routes xmlns:xsi="http://www.w3.org/2001/XMLSchema-instance" xsi:noNamespaceSchemaLocation="http://sumo.dlr.de/xsd/routes_file.xsd">
    <vType id="truck" length="7.50" minGap="4.50" maxSpeed="36.11" probability="0.80" speedFactor="normc(1.03,0.15,0.20,2.00)" vClass="truck" impatience="0.32" guiShape="truck" width="2.60" lcStrategic="1.79" lcCooperative="1.17" lcSpeedGain="10.13" lcKeepRight="0.85" lcImpatience="0.08" lcMaxSpeedLatStanding="0.00" lcSigma="0.16" accel="1.49" decel="4.37" sigma="0.64" />
    <vehicle id="0" depart="0.00" departLane="best" departPos="base" departSpeed="max">
        <route edges="1566 1567 1443 1445 1444 1448 1452" />
    </vehicle>
    <vType id="passenger" length="5.00" minGap="4.50" maxSpeed="50.00" probability="4.00" speedFactor="normc(0.98,0.15,0.20,2.00)" vClass="passenger" impatience="0.15" guiShape="passenger" width="2.00" lcStrategic="3.08" lcCooperative="2.60" lcSpeedGain="3.11" lcKeepRight="0.81" lcImpatience="0.21" lcMaxSpeedLatStanding="0.00" lcSigma="0.11" accel="1.82" decel="4.54" sigma="0.70" />
    <vehicle id="1" depart="0.10" departLane="best" departPos="base" departSpeed="max">
        <route edges="1582 1581 1583 1556 1558 1560 1567 1443 1445 1444 1448 1452" />
    </vehicle>
    <vehicle id="2" depart="0.20" departLane="best" departPos="base" departSpeed="max">
        <route edges="1582 1581 1583 1556 1558 1571 1574 1578" />
    </vehicle>
    <vehicle id="4" depart="0.40" departLane="best" departPos="base" departSpeed="max">
        <route edges="1576 1574 1577 1581 1583 1556 1558 1560 1567 1443 1445 1444 1448 1452" />
    </vehicle>
    <vehicle id="5" depart="0.50" departLane="best" departPos="base" departSpeed="max">
        <route edges="1549 1556 1558 1571 1574 1577 1581 1365" />
    </vehicle>
    <vehicle id="6" depart="0.60" departLane="best" departPos="base" departSpeed="max">
        <route edges="1588 1571 1574 1577 1581 1583 1606" />
    </vehicle>
    <vehicle id="7" depart="0.70" departLane="best" departPos="base" departSpeed="max">
        <route edges="1582 1581 1583 1556 1558 1571 1574 1578" />
    </vehicle>
    <vehicle id="8" depart="0.80" departLane="best" departPos="base" departSpeed="max">
        <route edges="1549 1552" />
    </vehicle>
    <vehicle id="9" depart="0.90" departLane="best" departPos="base" departSpeed="max">
        <route edges="1576 1574 1577 1581 1365" />
    </vehicle>
    <vehicle id="11" depart="1.10" departLane="best" departPos="base" departSpeed="max">
        <route edges="1582 1581 1583 1556 1558 1571 1574 1578" />
    </vehicle>
    <vehicle id="12" depart="1.20" departLane="best" departPos="base" departSpeed="max">
        <route edges="1566 1567 1443 1445 1444 1448 1452" />
    </vehicle>
    <vehicle id="14" depart="1.40" departLane="best" departPos="base" departSpeed="max">
        <route edges="1588 1571 1574 1577 1581 1583 1606" />
    </vehicle>
    <vehicle id="15" depart="1.50" departLane="best" departPos="base" departSpeed="max">
        <route edges="1549 1552" />
    </vehicle>
    <vehicle id="16" depart="1.60" departLane="best" departPos="base" departSpeed="max">
        <route edges="1576 1574 1578" />
    </vehicle>
    <vehicle id="17" depart="1.70" departLane="best" departPos="base" departSpeed="max">
        <route edges="1576 1574 1577 1581 1583 1606" />
    </vehicle>
    <vehicle id="18" depart="1.80" departLane="best" departPos="base" departSpeed="max">
        <route edges="1549 1556 1558 1571 1574 1578" />
    </vehicle>
    <vehicle id="19" depart="1.90" departLane="best" departPos="base" departSpeed="max">
        <route edges="1582 1581 1583 1606" />
    </vehicle>
    <vehicle id="21" depart="2.10" departLane="best" departPos="base" departSpeed="max">
        <route edges="1588 1571 1574 1577 1581 1583 1556 1559" />
    </vehicle>
    <vehicle id="22" depart="2.20" departLane="best" departPos="base" departSpeed="max">
        <route edges="1576 1574 1577 1581 1583 1606" />
    </vehicle>
    <vehicle id="23" depart="2.30" departLane="best" departPos="base" departSpeed="max">
        <route edges="1549 1556 1558 1571 1574 1577 1581 1583 1606" />
    </vehicle>
    <vType id="bus" length="12.40" minGap="2.50" maxSpeed="23.61" probability="0.30" speedFactor="normc(1.08,0.15,0.20,2.00)" vClass="bus" impatience="0.11" guiShape="bus" width="2.70" lcStrategic="3.92" lcCooperative="1.26" lcSpeedGain="18.65" lcKeepRight="0.90" lcImpatience="0.14" lcMaxSpeedLatStanding="0.00" lcSigma="0.15" accel="1.12" decel="4.29" sigma="0.67" />
    <vehicle id="24" depart="2.40" departLane="best" departPos="base" departSpeed="max">
        <route edges="1582 1581 1583 1606" />
    </vehicle>
    <vehicle id="25" depart="2.50" departLane="best" departPos="base" departSpeed="max">
        <route edges="1549 1552" />
    </vehicle>
    <vehicle id="26" depart="2.60" departLane="best" departPos="base" departSpeed="max">
        <route edges="1549 1556 1558 1571 1574 1578" />
    </vehicle>
    <vehicle id="27" depart="2.70" departLane="best" departPos="base" departSpeed="max">
        <route edges="1576 1574 1577 1581 1583 1556 1559" />
    </vehicle>
    <vehicle id="28" depart="2.80" departLane="best" departPos="base" departSpeed="max">
        <route edges="1549 1556 1559" />
    </vehicle>
    <vehicle id="29" depart="2.90" departLane="best" departPos="base" departSpeed="max">
        <route edges="1549 1556 1558 1571 1574 1578" />
    </vehicle>
    <vehicle id="30" depart="3.01" departLane="best" departPos="base" departSpeed="max">
        <route edges="1588 1571 1574 1578" />
    </vehicle>
    <vehicle id="31" depart="3.11" departLane="best" departPos="base" departSpeed="max">
        <route edges="1588 1571 1574 1578" />
    </vehicle>
    <vehicle id="32" depart="3.21" departLane="best" departPos="base" departSpeed="max">
        <route edges="1588 1560 1567 1443 1445 1444 1448 1452" />
    </vehicle>
    <vehicle id="33" depart="3.31" departLane="best" departPos="base" departSpeed="max">
        <route edges="1588 1571 1574 1577 1581 1365" />
    </vehicle>
    <vehicle id="34" depart="3.41" departLane="best" departPos="base" departSpeed="max">
        <route edges="1566 1567 1443 1445 1444 1448 1452" />
    </vehicle>
    <vehicle id="35" depart="3.51" departLane="best" departPos="base" departSpeed="max">
        <route edges="1549 1556 1559" />
    </vehicle>
    <vehicle id="36" depart="3.61" departLane="best" departPos="base" departSpeed="max">
        <route edges="1588 1571 1574 1577 1581 1365" />
    </vehicle>
    <vehicle id="37" depart="3.71" departLane="best" departPos="base" departSpeed="max">
        <route edges="1576 1574 1577 1581 1583 1556 1559" />
    </vehicle>
    <vehicle id="38" depart="3.81" departLane="best" departPos="base" departSpeed="max">
        <route edges="1549 1556 1558 1571 1574 1577 1581 1583 1606" />
    </vehicle>
    <vehicle id="39" depart="3.91" departLane="best" departPos="base" departSpeed="max">
        <route edges="1549 1552" />
    </vehicle>
    <vehicle id="42" depart="4.21" departLane="best" departPos="base" departSpeed="max">
        <route edges="1588 1571 1574 1577 1581 1583 1606" />
    </vehicle>
    <vehicle id="43" depart="4.31" departLane="best" departPos="base" departSpeed="max">
        <route edges="1576 1574 1577 1581 1583 1556 1559" />
    </vehicle>
    <vehicle id="44" depart="4.41" departLane="best" departPos="base" departSpeed="max">
        <route edges="1549 1556 1558 1571 1574 1577 1581 1583 1606" />
    </vehicle>
    <vehicle id="45" depart="4.51" departLane="best" departPos="base" departSpeed="max">
        <route edges="1549 1556 1558 1571 1574 1578" />
    </vehicle>
    <vehicle id="48" depart="4.81" departLane="best" departPos="base" departSpeed="max">
        <route edges="1566 1567 1443 1445 1444 1448 1452" />
    </vehicle>
    <vehicle id="49" depart="4.91" departLane="best" departPos="base" departSpeed="max">
        <route edges="1549 1556 1558 1571 1574 1577 1581 1365" />
    </vehicle>
    <vehicle id="50" depart="5.01" departLane="best" departPos="base" departSpeed="max">
        <route edges="1582 1581 1583 1556 1558 1571 1574 1578" />
    </vehicle>
    <vehicle id="51" depart="5.11" departLane="best" departPos="base" departSpeed="max">
        <route edges="1576 1574 1577 1581 1583 1606" />
    </vehicle>
    <vehicle id="52" depart="5.21" departLane="best" departPos="base" departSpeed="max">
        <route edges="1549 1556 1558 1571 1574 1577 1581 1365" />
    </vehicle>
    <vehicle id="53" depart="5.31" departLane="best" departPos="base" departSpeed="max">
        <route edges="1549 1556 1558 1571 1574 1577 1581 1365" />
    </vehicle>
    <vehicle id="54" depart="5.41" departLane="best" departPos="base" departSpeed="max">
        <route edges="1549 1556 1558 1571 1574 1578" />
    </vehicle>
    <vehicle id="55" depart="5.51" departLane="best" departPos="base" departSpeed="max">
        <route edges="1549 1556 1559" />
    </vehicle>
    <vehicle id="56" depart="5.61" departLane="best" departPos="base" departSpeed="max">
        <route edges="1582 1581 1583 1556 1558 1560 1567 1443 1445 1444 1448 1452" />
    </vehicle>
    <vehicle id="57" depart="5.71" departLane="best" departPos="base" departSpeed="max">
        <route edges="1588 1571 1574 1577 1581 1365" />
    </vehicle>
    <vehicle id="58" depart="5.81" departLane="best" departPos="base" departSpeed="max">
        <route edges="1582 1581 1583 1606" />
    </vehicle>
    <vehicle id="59" depart="5.91" departLane="best" departPos="base" departSpeed="max">
        <route edges="1549 1556 1558 1571 1574 1578" />
    </vehicle>
    <vehicle id="61" depart="6.11" departLane="best" departPos="base" departSpeed="max">
        <route edges="1549 1552" />
    </vehicle>
    <vehicle id="62" depart="6.21" departLane="best" departPos="base" departSpeed="max">
        <route edges="1549 1556 1559" />
    </vehicle>
    <vehicle id="64" depart="6.41" departLane="best" departPos="base" departSpeed="max">
        <route edges="1588 1571 1574 1577 1581 1583 1556 1559" />
    </vehicle>
    <vehicle id="65" depart="6.51" departLane="best" departPos="base" departSpeed="max">
        <route edges="1582 1581 1583 1556 1558 1560 1567 1443 1445 1444 1448 1452" />
    </vehicle>
    <vehicle id="67" depart="6.71" departLane="best" departPos="base" departSpeed="max">
        <route edges="1588 1571 1574 1577 1581 1365" />
    </vehicle>
    <vType id="bicycle" length="2.00" minGap="1.00" maxSpeed="6.94" probability="0.20" speedFactor="normc(1.00,0.19,0.20,2.00)" vClass="bicycle" impatience="0.09" guiShape="bicycle" width="0.68" lcStrategic="2.90" lcCooperative="1.56" lcSpeedGain="16.14" lcKeepRight="0.81" lcImpatience="0.41" lcMaxSpeedLatStanding="0.00" lcSigma="0.19" accel="1.30" decel="3.05" sigma="0.52" />
    <vehicle id="69" depart="6.91" departLane="best" departPos="base" departSpeed="max">
        <route edges="1576 1574 1577 1581 1583 1556 1558 1560 1567 1443 1445 1444 1448 1452" />
    </vehicle>
    <vehicle id="70" depart="7.01" departLane="best" departPos="base" departSpeed="max">
        <route edges="1576 1574 1577 1581 1365" />
    </vehicle>
    <vehicle id="73" depart="7.31" departLane="best" departPos="base" departSpeed="max">
        <route edges="1576 1574 1577 1581 1583 1606" />
    </vehicle>
    <vehicle id="74" depart="7.41" departLane="best" departPos="base" departSpeed="max">
        <route edges="1588 1560 1567 1443 1445 1444 1448 1452" />
    </vehicle>
    <vehicle id="75" depart="7.51" departLane="best" departPos="base" departSpeed="max">
        <route edges="1549 1556 1559" />
    </vehicle>
    <vehicle id="77" depart="7.71" departLane="best" departPos="base" departSpeed="max">
        <route edges="1549 1556 1559" />
    </vehicle>
    <vehicle id="79" depart="7.91" departLane="best" departPos="base" departSpeed="max">
        <route edges="1582 1581 1583 1606" />
    </vehicle>
    <vehicle id="80" depart="8.01" departLane="best" departPos="base" departSpeed="max">
        <route edges="1588 1571 1574 1578" />
    </vehicle>
    <vehicle id="81" depart="8.11" departLane="best" departPos="base" departSpeed="max">
        <route edges="1582 1581 1365" />
    </vehicle>
    <vehicle id="82" depart="8.21" departLane="best" departPos="base" departSpeed="max">
        <route edges="1576 1574 1577 1581 1583 1556 1558 1560 1567 1443 1445 1444 1448 1452" />
    </vehicle>
    <vehicle id="84" depart="8.41" departLane="best" departPos="base" departSpeed="max">
        <route edges="1576 1574 1577 1581 1365" />
    </vehicle>
    <vehicle id="85" depart="8.51" departLane="best" departPos="base" departSpeed="max">
        <route edges="1582 1581 1583 1556 1558 1560 1567 1443 1445 1444 1448 1452" />
    </vehicle>
    <vehicle id="86" depart="8.61" departLane="best" departPos="base" departSpeed="max">
        <route edges="1566 1567 1443 1445 1444 1448 1452" />
    </vehicle>
    <vehicle id="87" depart="8.71" departLane="best" departPos="base" departSpeed="max">
        <route edges="1549 1556 1558 1560 1567 1443 1445 1444 1448 1452" />
    </vehicle>
    <vehicle id="88" depart="8.81" departLane="best" departPos="base" departSpeed="max">
        <route edges="1549 1556 1558 1560 1567 1443 1445 1444 1448 1452" />
    </vehicle>
    <vehicle id="89" depart="8.91" departLane="best" departPos="base" departSpeed="max">
        <route edges="1576 1574 1577 1581 1583 1606" />
    </vehicle>
    <vehicle id="92" depart="9.22" departLane="best" departPos="base" departSpeed="max">
        <route edges="1549 1556 1558 1560 1567 1443 1445 1444 1448 1452" />
    </vehicle>
    <vehicle id="93" depart="9.32" departLane="best" departPos="base" departSpeed="max">
        <route edges="1582 1581 1583 1556 1558 1560 1567 1443 1445 1444 1448 1452" />
    </vehicle>
    <vehicle id="94" depart="9.42" departLane="best" departPos="base" departSpeed="max">
        <route edges="1576 1574 1577 1581 1583 1556 1558 1560 1567 1443 1445 1444 1448 1452" />
    </vehicle>
    <vehicle id="97" depart="9.72" departLane="best" departPos="base" departSpeed="max">
        <route edges="1588 1571 1574 1577 1581 1365" />
    </vehicle>
    <vehicle id="98" depart="9.82" departLane="best" departPos="base" departSpeed="max">
        <route edges="1576 1574 1577 1581 1583 1556 1558 1560 1567 1443 1445 1444 1448 1452" />
    </vehicle>
    <vehicle id="99" depart="9.92" departLane="best" departPos="base" departSpeed="max">
        <route edges="1582 1581 1583 1606" />
    </vehicle>
    <vehicle id="egoVehicle100" depart="10.02" departLane="best" departPos="base" departSpeed="max">
        <route edges="1566 1567 1443 1445 1444 1448 1452" />
    </vehicle>
    <vehicle id="104" depart="10.42" departLane="best" departPos="base" departSpeed="max">
        <route edges="1582 1581 1583 1556 1558 1571 1574 1578" />
    </vehicle>
    <vehicle id="105" depart="10.52" departLane="best" departPos="base" departSpeed="max">
        <route edges="1582 1581 1365" />
    </vehicle>
    <vehicle id="108" depart="10.82" departLane="best" departPos="base" departSpeed="max">
        <route edges="1549 1556 1558 1571 1574 1578" />
    </vehicle>
    <vehicle id="109" depart="10.92" departLane="best" departPos="base" departSpeed="max">
        <route edges="1549 1556 1559" />
    </vehicle>
    <vehicle id="112" depart="11.22" departLane="best" departPos="base" departSpeed="max">
        <route edges="1549 1552" />
    </vehicle>
    <vehicle id="114" depart="11.42" departLane="best" departPos="base" departSpeed="max">
        <route edges="1566 1567 1443 1445 1444 1448 1452" />
    </vehicle>
    <vehicle id="115" depart="11.52" departLane="best" departPos="base" departSpeed="max">
        <route edges="1576 1574 1577 1581 1583 1556 1558 1560 1567 1443 1445 1444 1448 1452" />
    </vehicle>
    <vehicle id="117" depart="11.72" departLane="best" departPos="base" departSpeed="max">
        <route edges="1588 1571 1574 1578" />
    </vehicle>
    <vehicle id="119" depart="11.92" departLane="best" departPos="base" departSpeed="max">
        <route edges="1576 1574 1577 1581 1583 1556 1558 1560 1567 1443 1445 1444 1448 1452" />
    </vehicle>
    <vehicle id="120" depart="12.02" departLane="best" departPos="base" departSpeed="max">
        <route edges="1582 1581 1583 1556 1558 1571 1574 1578" />
    </vehicle>
    <vehicle id="121" depart="12.12" departLane="best" departPos="base" departSpeed="max">
        <route edges="1588 1560 1567 1443 1445 1444 1448 1452" />
    </vehicle>
    <vehicle id="122" depart="12.22" departLane="best" departPos="base" departSpeed="max">
        <route edges="1588 1571 1574 1577 1581 1365" />
    </vehicle>
    <vehicle id="123" depart="12.32" departLane="best" departPos="base" departSpeed="max">
        <route edges="1582 1581 1583 1606" />
    </vehicle>
    <vehicle id="125" depart="12.52" departLane="best" departPos="base" departSpeed="max">
        <route edges="1576 1574 1577 1581 1583 1606" />
    </vehicle>
    <vehicle id="126" depart="12.62" departLane="best" departPos="base" departSpeed="max">
        <route edges="1588 1571 1574 1577 1581 1583 1556 1559" />
    </vehicle>
    <vehicle id="128" depart="12.82" departLane="best" departPos="base" departSpeed="max">
        <route edges="1576 1574 1577 1581 1583 1556 1559" />
    </vehicle>
    <vehicle id="130" depart="13.02" departLane="best" departPos="base" departSpeed="max">
        <route edges="1582 1581 1583 1556 1558 1560 1567 1443 1445 1444 1448 1452" />
    </vehicle>
    <vehicle id="132" depart="13.22" departLane="best" departPos="base" departSpeed="max">
        <route edges="1582 1581 1365" />
    </vehicle>
    <vehicle id="133" depart="13.32" departLane="best" departPos="base" departSpeed="max">
        <route edges="1588 1571 1574 1577 1581 1583 1556 1559" />
    </vehicle>
    <vehicle id="135" depart="13.52" departLane="best" departPos="base" departSpeed="max">
        <route edges="1588 1560 1567 1443 1445 1444 1448 1452" />
    </vehicle>
    <vehicle id="137" depart="13.72" departLane="best" departPos="base" departSpeed="max">
        <route edges="1549 1556 1558 1571 1574 1578" />
    </vehicle>
    <vehicle id="138" depart="13.82" departLane="best" departPos="base" departSpeed="max">
        <route edges="1588 1571 1574 1577 1581 1365" />
    </vehicle>
    <vehicle id="139" depart="13.92" departLane="best" departPos="base" departSpeed="max">
        <route edges="1588 1560 1567 1443 1445 1444 1448 1452" />
    </vehicle>
    <vehicle id="141" depart="14.12" departLane="best" departPos="base" departSpeed="max">
        <route edges="1588 1571 1574 1577 1581 1583 1606" />
    </vehicle>
    <vehicle id="143" depart="14.32" departLane="best" departPos="base" departSpeed="max">
        <route edges="1582 1581 1583 1606" />
    </vehicle>
    <vehicle id="145" depart="14.52" departLane="best" departPos="base" departSpeed="max">
        <route edges="1576 1574 1577 1581 1583 1606" />
    </vehicle>
    <vehicle id="147" depart="14.72" departLane="best" departPos="base" departSpeed="max">
        <route edges="1549 1556 1558 1571 1574 1578" />
    </vehicle>
    <vehicle id="148" depart="14.82" departLane="best" departPos="base" departSpeed="max">
        <route edges="1576 1574 1577 1581 1365" />
    </vehicle>
    <vehicle id="150" depart="15.03" departLane="best" departPos="base" departSpeed="max">
        <route edges="1588 1571 1574 1577 1581 1583 1556 1559" />
    </vehicle>
    <vehicle id="151" depart="15.13" departLane="best" departPos="base" departSpeed="max">
        <route edges="1576 1574 1578" />
    </vehicle>
    <vehicle id="152" depart="15.23" departLane="best" departPos="base" departSpeed="max">
        <route edges="1549 1556 1558 1560 1567 1443 1445 1444 1448 1452" />
    </vehicle>
    <vehicle id="153" depart="15.33" departLane="best" departPos="base" departSpeed="max">
        <route edges="1549 1552" />
    </vehicle>
    <vehicle id="155" depart="15.53" departLane="best" departPos="base" departSpeed="max">
        <route edges="1582 1581 1365" />
    </vehicle>
    <vehicle id="156" depart="15.63" departLane="best" departPos="base" departSpeed="max">
        <route edges="1588 1571 1574 1577 1581 1583 1606" />
    </vehicle>
    <vehicle id="158" depart="15.83" departLane="best" departPos="base" departSpeed="max">
        <route edges="1576 1574 1577 1581 1365" />
    </vehicle>
    <vehicle id="159" depart="15.93" departLane="best" departPos="base" departSpeed="max">
        <route edges="1549 1556 1558 1560 1567 1443 1445 1444 1448 1452" />
    </vehicle>
    <vehicle id="160" depart="16.03" departLane="best" departPos="base" departSpeed="max">
        <route edges="1582 1581 1365" />
    </vehicle>
    <vehicle id="161" depart="16.13" departLane="best" departPos="base" departSpeed="max">
        <route edges="1566 1567 1443 1445 1444 1448 1452" />
    </vehicle>
    <vehicle id="162" depart="16.23" departLane="best" departPos="base" departSpeed="max">
        <route edges="1582 1581 1583 1556 1558 1560 1567 1443 1445 1444 1448 1452" />
    </vehicle>
    <vehicle id="163" depart="16.33" departLane="best" departPos="base" departSpeed="max">
        <route edges="1576 1574 1577 1581 1583 1556 1558 1560 1567 1443 1445 1444 1448 1452" />
    </vehicle>
    <vehicle id="164" depart="16.43" departLane="best" departPos="base" departSpeed="max">
        <route edges="1582 1581 1583 1556 1559" />
    </vehicle>
    <vehicle id="165" depart="16.53" departLane="best" departPos="base" departSpeed="max">
        <route edges="1588 1560 1567 1443 1445 1444 1448 1452" />
    </vehicle>
    <vehicle id="166" depart="16.63" departLane="best" departPos="base" departSpeed="max">
        <route edges="1588 1571 1574 1577 1581 1583 1606" />
    </vehicle>
    <vehicle id="168" depart="16.83" departLane="best" departPos="base" departSpeed="max">
        <route edges="1582 1581 1583 1606" />
    </vehicle>
    <vehicle id="169" depart="16.93" departLane="best" departPos="base" departSpeed="max">
        <route edges="1576 1574 1577 1581 1365" />
    </vehicle>
    <vehicle id="170" depart="17.03" departLane="best" departPos="base" departSpeed="max">
        <route edges="1549 1556 1558 1571 1574 1577 1581 1365" />
    </vehicle>
    <vehicle id="171" depart="17.13" departLane="best" departPos="base" departSpeed="max">
        <route edges="1582 1581 1365" />
    </vehicle>
    <vehicle id="173" depart="17.33" departLane="best" departPos="base" departSpeed="max">
        <route edges="1576 1574 1577 1581 1583 1606" />
    </vehicle>
    <vehicle id="175" depart="17.53" departLane="best" departPos="base" departSpeed="max">
        <route edges="1582 1581 1583 1606" />
    </vehicle>
    <vehicle id="176" depart="17.63" departLane="best" departPos="base" departSpeed="max">
        <route edges="1582 1581 1365" />
    </vehicle>
    <vehicle id="177" depart="17.73" departLane="best" departPos="base" departSpeed="max">
        <route edges="1582 1581 1365" />
    </vehicle>
    <vehicle id="178" depart="17.83" departLane="best" departPos="base" departSpeed="max">
        <route edges="1549 1556 1559" />
    </vehicle>
    <vehicle id="179" depart="17.93" departLane="best" departPos="base" departSpeed="max">
        <route edges="1576 1574 1577 1581 1583 1556 1558 1560 1567 1443 1445 1444 1448 1452" />
    </vehicle>
    <vehicle id="181" depart="18.13" departLane="best" departPos="base" departSpeed="max">
        <route edges="1582 1581 1365" />
    </vehicle>
    <vehicle id="182" depart="18.23" departLane="best" departPos="base" departSpeed="max">
        <route edges="1549 1552" />
    </vehicle>
    <vehicle id="183" depart="18.33" departLane="best" departPos="base" departSpeed="max">
        <route edges="1576 1574 1577 1581 1365" />
    </vehicle>
    <vehicle id="184" depart="18.43" departLane="best" departPos="base" departSpeed="max">
        <route edges="1566 1567 1443 1445 1444 1448 1452" />
    </vehicle>
    <vehicle id="186" depart="18.63" departLane="best" departPos="base" departSpeed="max">
        <route edges="1566 1567 1443 1445 1444 1448 1452" />
    </vehicle>
    <vehicle id="187" depart="18.73" departLane="best" departPos="base" departSpeed="max">
        <route edges="1588 1571 1574 1578" />
    </vehicle>
    <vehicle id="189" depart="18.93" departLane="best" departPos="base" departSpeed="max">
        <route edges="1582 1581 1583 1556 1558 1571 1574 1578" />
    </vehicle>
    <vehicle id="190" depart="19.03" departLane="best" departPos="base" departSpeed="max">
        <route edges="1549 1556 1558 1571 1574 1577 1581 1365" />
    </vehicle>
    <vehicle id="192" depart="19.23" departLane="best" departPos="base" departSpeed="max">
        <route edges="1588 1571 1574 1578" />
    </vehicle>
    <vehicle id="193" depart="19.33" departLane="best" departPos="base" departSpeed="max">
        <route edges="1588 1571 1574 1577 1581 1365" />
    </vehicle>
    <vehicle id="194" depart="19.43" departLane="best" departPos="base" departSpeed="max">
        <route edges="1582 1581 1365" />
    </vehicle>
    <vehicle id="195" depart="19.53" departLane="best" departPos="base" departSpeed="max">
        <route edges="1588 1560 1567 1443 1445 1444 1448 1452" />
    </vehicle>
    <vehicle id="196" depart="19.63" departLane="best" departPos="base" departSpeed="max">
        <route edges="1576 1574 1578" />
    </vehicle>
    <vehicle id="197" depart="19.73" departLane="best" departPos="base" departSpeed="max">
        <route edges="1566 1567 1443 1445 1444 1448 1452" />
    </vehicle>
    <vehicle id="198" depart="19.83" departLane="best" departPos="base" departSpeed="max">
        <route edges="1588 1571 1574 1577 1581 1583 1556 1559" />
    </vehicle>
    <vehicle id="199" depart="19.93" departLane="best" departPos="base" departSpeed="max">
        <route edges="1582 1581 1583 1556 1559" />
    </vehicle>
    <vehicle id="200" depart="20.03" departLane="best" departPos="base" departSpeed="max">
        <route edges="1576 1574 1577 1581 1583 1606" />
    </vehicle>
    <vehicle id="201" depart="20.13" departLane="best" departPos="base" departSpeed="max">
        <route edges="1576 1574 1578" />
    </vehicle>
    <vehicle id="202" depart="20.23" departLane="best" departPos="base" departSpeed="max">
        <route edges="1582 1581 1583 1556 1559" />
    </vehicle>
    <vehicle id="203" depart="20.33" departLane="best" departPos="base" departSpeed="max">
        <route edges="1588 1571 1574 1577 1581 1583 1556 1559" />
    </vehicle>
    <vehicle id="204" depart="20.43" departLane="best" departPos="base" departSpeed="max">
        <route edges="1588 1571 1574 1577 1581 1365" />
    </vehicle>
    <vehicle id="205" depart="20.53" departLane="best" departPos="base" departSpeed="max">
        <route edges="1576 1574 1578" />
    </vehicle>
    <vehicle id="207" depart="20.73" departLane="best" departPos="base" departSpeed="max">
        <route edges="1582 1581 1583 1556 1558 1571 1574 1578" />
    </vehicle>
    <vehicle id="208" depart="20.83" departLane="best" departPos="base" departSpeed="max">
        <route edges="1588 1571 1574 1577 1581 1365" />
    </vehicle>
    <vehicle id="209" depart="20.94" departLane="best" departPos="base" departSpeed="max">
        <route edges="1588 1560 1567 1443 1445 1444 1448 1452" />
    </vehicle>
    <vehicle id="210" depart="21.04" departLane="best" departPos="base" departSpeed="max">
        <route edges="1549 1556 1558 1571 1574 1578" />
    </vehicle>
    <vehicle id="211" depart="21.14" departLane="best" departPos="base" departSpeed="max">
        <route edges="1549 1556 1558 1571 1574 1577 1581 1365" />
    </vehicle>
    <vehicle id="212" depart="21.24" departLane="best" departPos="base" departSpeed="max">
        <route edges="1549 1556 1558 1571 1574 1577 1581 1583 1606" />
    </vehicle>
    <vehicle id="214" depart="21.44" departLane="best" departPos="base" departSpeed="max">
        <route edges="1549 1556 1558 1571 1574 1577 1581 1365" />
    </vehicle>
    <vehicle id="215" depart="21.54" departLane="best" departPos="base" departSpeed="max">
        <route edges="1549 1552" />
    </vehicle>
    <vehicle id="216" depart="21.64" departLane="best" departPos="base" departSpeed="max">
        <route edges="1549 1556 1558 1571 1574 1577 1581 1365" />
    </vehicle>
    <vehicle id="218" depart="21.84" departLane="best" departPos="base" departSpeed="max">
        <route edges="1566 1567 1443 1445 1444 1448 1452" />
    </vehicle>
    <vehicle id="219" depart="21.94" departLane="best" departPos="base" departSpeed="max">
        <route edges="1588 1571 1574 1577 1581 1583 1606" />
    </vehicle>
    <vehicle id="220" depart="22.04" departLane="best" departPos="base" departSpeed="max">
        <route edges="1566 1567 1443 1445 1444 1448 1452" />
    </vehicle>
    <vehicle id="221" depart="22.14" departLane="best" departPos="base" departSpeed="max">
        <route edges="1576 1574 1577 1581 1583 1556 1559" />
    </vehicle>
    <vehicle id="222" depart="22.24" departLane="best" departPos="base" departSpeed="max">
        <route edges="1549 1556 1559" />
    </vehicle>
    <vehicle id="223" depart="22.34" departLane="best" departPos="base" departSpeed="max">
        <route edges="1588 1571 1574 1577 1581 1583 1556 1559" />
    </vehicle>
    <vehicle id="224" depart="22.44" departLane="best" departPos="base" departSpeed="max">
        <route edges="1576 1574 1577 1581 1583 1556 1559" />
    </vehicle>
    <vehicle id="225" depart="22.54" departLane="best" departPos="base" departSpeed="max">
        <route edges="1588 1571 1574 1578" />
    </vehicle>
    <vehicle id="226" depart="22.64" departLane="best" departPos="base" departSpeed="max">
        <route edges="1588 1571 1574 1577 1581 1583 1606" />
    </vehicle>