<!-- generated on 2021-07-01 02:06:56 by Eclipse SUMO netconvert Version 1.9.2
<configuration xmlns:xsi="http://www.w3.org/2001/XMLSchema-instance" xsi:noNamespaceSchemaLocation="http://sumo.dlr.de/xsd/netconvertConfiguration.xsd">

    <input>
        <node-files value="/home/klischat/out/2021_competition_scenarios/20210701-015539/DEU_Frankfurt-73/DEU_Frankfurt-73.nod.xml"/>
        <edge-files value="/home/klischat/out/2021_competition_scenarios/20210701-015539/DEU_Frankfurt-73/DEU_Frankfurt-73.edg.xml"/>
        <connection-files value="/home/klischat/out/2021_competition_scenarios/20210701-015539/DEU_Frankfurt-73/DEU_Frankfurt-73.con.xml"/>
        <tllogic-files value="/home/klischat/out/2021_competition_scenarios/20210701-015539/DEU_Frankfurt-73/DEU_Frankfurt-73.tll.xml"/>
        <type-files value="/home/klischat/out/2021_competition_scenarios/20210701-015539/DEU_Frankfurt-73/DEU_Frankfurt-73.typ.xml"/>
    </input>

    <output>
        <output-file value="/home/klischat/out/2021_competition_scenarios/20210701-015539/DEU_Frankfurt-73/DEU_Frankfurt-73.net.xml"/>
    </output>

    <processing>
        <geometry.remove.keep-edges.explicit value="true"/>
        <geometry.remove.min-length value="0"/>
        <geometry.avoid-overlap value="true"/>
        <offset.disable-normalization value="true"/>
    </processing>

    <tls_building>
        <tls.guess-signals value="true"/>
        <tls.green.time value="50"/>
        <tls.yellow.time value="10"/>
        <tls.red.time value="50"/>
        <tls.allred.time value="50"/>
        <tls.left-green.time value="50"/>
        <tls.crossing-min.time value="50"/>
        <tls.crossing-clearance.time value="50"/>
        <tls.group-signals value="true"/>
    </tls_building>

    <junctions>
        <no-turnarounds value="true"/>
        <junctions.internal-link-detail value="20"/>
    </junctions>

    <report>
        <aggregate-warnings value="5"/>
    </report>

    <random_number>
        <seed value="254"/>
    </random_number>

</configuration>
--><net xmlns:xsi="http://www.w3.org/2001/XMLSchema-instance" version="1.9" junctionCornerDetail="5" junctionLinkDetail="20" limitTurnSpeed="5.50" xsi:noNamespaceSchemaLocation="http://sumo.dlr.de/xsd/net_file.xsd">

    <location netOffset="0.00,0.00" convBoundary="470192.53,5544944.50,471600.85,5545150.99" origBoundary="470192.53,5544944.50,471601.75,5545155.71" projParameter="!"/>

    <type id="highway.bridleway" priority="1" speed="2.78" allow="pedestrian" oneway="1"/>
    <type id="highway.bus_guideway" priority="1" speed="27.78" allow="bus" oneway="1"/>
    <type id="highway.cycleway" priority="1" speed="8.33" allow="bicycle"/>
    <type id="highway.footway" priority="1" speed="2.78" allow="pedestrian" oneway="1"/>
    <type id="highway.ford" priority="1" speed="2.78" allow="army"/>
    <type id="highway.living_street" priority="2" speed="2.78" disallow="tram rail_urban rail rail_electric ship"/>
    <type id="highway.living_street_priority_1" priority="1" speed="2.78" disallow="tram rail_urban rail rail_electric ship"/>
    <type id="highway.living_street_speed_13.89" priority="2" speed="13.89" disallow="tram rail_urban rail rail_electric ship"/>
    <type id="highway.living_street_speed_13.89_speed_27.78" priority="2" speed="27.78" disallow="tram rail_urban rail rail_electric ship"/>
    <type id="highway.living_street_speed_13.89_speed_27.78_speed_16.67" priority="2" speed="16.67" disallow="tram rail_urban rail rail_electric ship"/>
    <type id="highway.living_street_speed_22.22" priority="2" speed="22.22" disallow="tram rail_urban rail rail_electric ship"/>
    <type id="highway.living_street_speed_33.33" priority="2" speed="33.33" disallow="tram rail_urban rail rail_electric ship"/>
    <type id="highway.living_street_speed_33.33_speed_16.67" priority="2" speed="16.67" disallow="tram rail_urban rail rail_electric ship"/>
    <type id="highway.motorway" priority="14" speed="39.44" disallow="pedestrian moped bicycle tram rail_urban rail rail_electric ship" oneway="1"/>
    <type id="highway.motorway_link" priority="9" speed="22.22" disallow="pedestrian moped bicycle tram rail_urban rail rail_electric ship" oneway="1"/>
    <type id="highway.motorway_speed_16.67" priority="14" speed="16.67" disallow="pedestrian moped bicycle tram rail_urban rail rail_electric ship" oneway="1"/>
    <type id="highway.path" priority="1" speed="2.78" allow="pedestrian bicycle"/>
    <type id="highway.pedestrian" priority="1" speed="2.78" allow="pedestrian" oneway="1"/>
    <type id="highway.primary" priority="12" speed="27.78" disallow="pedestrian tram rail_urban rail rail_electric ship"/>
    <type id="highway.primary_link" priority="7" speed="22.22" disallow="pedestrian tram rail_urban rail rail_electric ship"/>
    <type id="highway.raceway" priority="15" speed="83.33" allow="vip"/>
    <type id="highway.residential" priority="3" speed="13.89" disallow="pedestrian tram rail_urban rail rail_electric ship"/>
    <type id="highway.residential_priority_2" priority="2" speed="13.89" disallow="pedestrian tram rail_urban rail rail_electric ship"/>
    <type id="highway.secondary" priority="11" speed="27.78" disallow="pedestrian tram rail_urban rail rail_electric ship"/>
    <type id="highway.secondary_link" priority="6" speed="22.22" disallow="pedestrian tram rail_urban rail rail_electric ship"/>
    <type id="highway.service" priority="1" speed="5.56" allow="pedestrian delivery bicycle"/>
    <type id="highway.stairs" priority="1" speed="1.39" allow="pedestrian" oneway="1"/>
    <type id="highway.step" priority="1" speed="1.39" allow="pedestrian" oneway="1"/>
    <type id="highway.steps" priority="1" speed="1.39" allow="pedestrian" oneway="1"/>
    <type id="highway.tertiary" priority="10" speed="22.22" disallow="pedestrian tram rail_urban rail rail_electric ship"/>
    <type id="highway.tertiary_link" priority="5" speed="22.22" disallow="pedestrian tram rail_urban rail rail_electric ship"/>
    <type id="highway.track" priority="1" speed="5.56" allow="pedestrian motorcycle moped bicycle"/>
    <type id="highway.trunk" priority="13" speed="27.78" disallow="pedestrian bicycle tram rail_urban rail rail_electric ship"/>
    <type id="highway.trunk_link" priority="8" speed="22.22" disallow="pedestrian bicycle tram rail_urban rail rail_electric ship"/>
    <type id="highway.unclassified" priority="4" speed="13.89" disallow="tram rail_urban rail rail_electric ship"/>
    <type id="highway.unsurfaced" priority="1" speed="8.33" disallow="tram rail_urban rail rail_electric ship"/>
    <type id="railway.highspeed" priority="21" speed="69.44" allow="rail" oneway="1"/>
    <type id="railway.light_rail" priority="19" speed="27.78" allow="rail_urban" oneway="1"/>
    <type id="railway.preserved" priority="16" speed="27.78" allow="rail" oneway="1"/>
    <type id="railway.rail" priority="20" speed="44.44" allow="rail" oneway="1"/>
    <type id="railway.subway" priority="18" speed="27.78" allow="rail_urban" oneway="1"/>
    <type id="railway.tram" priority="17" speed="13.89" allow="tram" oneway="1"/>

    <edge id=":12_0" function="internal">
        <lane id=":12_0_0" index="0" disallow="pedestrian tram rail_urban rail rail_electric ship" speed="36.11" length="15.99" width="5.51" shape="470443.33,5544981.82 470444.45,5544981.36 470445.47,5544980.89 470446.42,5544980.41 470447.28,5544979.93 470448.08,5544979.44 470448.82,5544978.95 470449.50,5544978.45 470450.14,5544977.96 470450.73,5544977.46 470451.30,5544976.95 470451.84,5544976.45 470452.36,5544975.95 470452.88,5544975.46 470453.39,5544974.96 470453.91,5544974.47 470454.44,5544973.98 470454.99,5544973.49 470455.57,5544973.01 470456.19,5544972.54"/>
    </edge>
    <edge id=":12_1" function="internal">
        <lane id=":12_1_0" index="0" disallow="pedestrian tram rail_urban rail rail_electric ship" speed="24.82" length="16.46" width="3.94" shape="470443.33,5544981.82 470444.47,5544981.38 470445.50,5544981.00 470446.43,5544980.67 470447.29,5544980.39 470448.08,5544980.16 470448.82,5544979.97 470449.52,5544979.82 470450.19,5544979.71 470450.85,5544979.62 470451.50,5544979.57 470452.17,5544979.55 470452.86,5544979.54 470453.58,5544979.55 470454.36,5544979.58 470455.20,5544979.62 470456.11,5544979.66 470457.12,5544979.71 470458.22,5544979.76 470459.44,5544979.81"/>
        <lane id=":12_1_1" index="1" disallow="pedestrian tram rail_urban rail rail_electric ship" speed="23.28" length="16.21" width="3.60" shape="470444.62,5544985.34 470445.76,5544984.97 470446.79,5544984.63 470447.73,5544984.32 470448.59,5544984.05 470449.37,5544983.81 470450.11,5544983.60 470450.79,5544983.42 470451.45,5544983.28 470452.10,5544983.16 470452.74,5544983.07 470453.39,5544983.01 470454.06,5544982.98 470454.76,5544982.97 470455.52,5544982.99 470456.34,5544983.03 470457.23,5544983.09 470458.21,5544983.18 470459.28,5544983.28 470460.48,5544983.41"/>
    </edge>
    <edge id=":16_0" function="internal">
        <lane id=":16_0_0" index="0" disallow="pedestrian moped bicycle tram rail_urban rail rail_electric ship" speed="21.53" length="10.91" width="4.50" shape="470416.37,5545049.94 470415.90,5545049.28 470415.47,5545048.69 470415.05,5545048.17 470414.66,5545047.70 470414.28,5545047.29 470413.91,5545046.91 470413.55,5545046.58 470413.20,5545046.27 470412.84,5545046.00 470412.47,5545045.73 470412.09,5545045.48 470411.70,5545045.24 470411.28,5545044.99 470410.84,5545044.73 470410.37,5545044.46 470409.86,5545044.16 470409.31,5545043.83 470408.72,5545043.47 470408.08,5545043.07"/>
    </edge>
    <edge id=":16_1" function="internal">
        <lane id=":16_1_0" index="0" disallow="pedestrian tram rail_urban rail rail_electric ship" speed="36.11" length="10.77" width="4.17" shape="470416.37,5545049.94 470415.92,5545049.28 470415.53,5545048.68 470415.20,5545048.12 470414.91,5545047.61 470414.66,5545047.14 470414.45,5545046.69 470414.27,5545046.26 470414.12,5545045.84 470413.98,5545045.43 470413.86,5545045.01 470413.76,5545044.59 470413.65,5545044.15 470413.54,5545043.69 470413.43,5545043.19 470413.30,5545042.65 470413.15,5545042.07 470412.98,5545041.44 470412.78,5545040.74 470412.54,5545039.97"/>
        <lane id=":16_1_1" index="1" disallow="pedestrian tram rail_urban rail rail_electric ship" speed="36.11" length="10.50" width="3.58" shape="470419.66,5545047.81 470419.25,5545047.15 470418.89,5545046.54 470418.57,5545045.99 470418.28,5545045.49 470418.03,5545045.03 470417.81,5545044.59 470417.61,5545044.18 470417.43,5545043.78 470417.27,5545043.40 470417.13,5545043.01 470416.99,5545042.61 470416.86,5545042.19 470416.73,5545041.75 470416.59,5545041.28 470416.45,5545040.76 470416.29,5545040.20 470416.12,5545039.59 470415.94,5545038.90 470415.72,5545038.15"/>
    </edge>
    <edge id=":17_0" function="internal">
        <lane id=":17_0_0" index="0" disallow="pedestrian tram rail_urban rail rail_electric ship" speed="36.11" length="21.28" width="4.17" shape="470425.53,5545069.26 470425.30,5545068.49 470425.05,5545067.70 470424.80,5545066.89 470424.52,5545066.05 470424.23,5545065.18 470423.92,5545064.29 470423.58,5545063.38 470423.21,5545062.43 470422.82,5545061.46 470422.39,5545060.47 470421.92,5545059.44 470421.41,5545058.38 470420.86,5545057.29 470420.26,5545056.18 470419.62,5545055.03 470418.92,5545053.85 470418.17,5545052.63 470417.36,5545051.39 470416.49,5545050.11"/>
    </edge>
    <edge id=":17_1" function="internal">
        <lane id=":17_1_0" index="0" disallow="pedestrian tram rail_urban rail rail_electric ship" speed="31.35" length="21.42" width="4.17" shape="470431.10,5545065.46 470429.84,5545064.62 470428.70,5545063.84 470427.67,5545063.10 470426.74,5545062.41 470425.89,5545061.73 470425.11,5545061.08 470424.39,5545060.44 470423.73,5545059.79 470423.10,5545059.14 470422.50,5545058.47 470421.92,5545057.77 470421.34,5545057.03 470420.76,5545056.25 470420.16,5545055.42 470419.53,5545054.52 470418.86,5545053.55 470418.13,5545052.50 470417.35,5545051.35 470416.49,5545050.11"/>
        <lane id=":17_1_1" index="1" disallow="pedestrian tram rail_urban rail rail_electric ship" speed="25.89" length="21.21" width="3.46" shape="470434.14,5545063.18 470432.88,5545062.35 470431.74,5545061.58 470430.70,5545060.86 470429.76,5545060.18 470428.90,5545059.53 470428.11,5545058.91 470427.39,5545058.29 470426.72,5545057.67 470426.09,5545057.04 470425.50,5545056.39 470424.92,5545055.71 470424.35,5545054.99 470423.79,5545054.22 470423.21,5545053.39 470422.61,5545052.49 470421.97,5545051.51 470421.30,5545050.44 470420.57,5545049.27 470419.77,5545047.98"/>
    </edge>
    <edge id=":18_0" function="internal">
        <lane id=":18_0_0" index="0" disallow="pedestrian tram rail_urban rail rail_electric ship" speed="36.11" length="15.35" width="4.45" shape="470466.19,5545072.90 470465.07,5545073.23 470464.04,5545073.56 470463.09,5545073.91 470462.20,5545074.26 470461.38,5545074.61 470460.61,5545074.97 470459.90,5545075.33 470459.22,5545075.70 470458.58,5545076.07 470457.97,5545076.43 470457.38,5545076.80 470456.80,5545077.17 470456.23,5545077.54 470455.65,5545077.91 470455.07,5545078.28 470454.47,5545078.64 470453.85,5545079.00 470453.20,5545079.36 470452.51,5545079.71"/>
    </edge>
    <edge id=":18_1" function="internal">
        <lane id=":18_1_0" index="0" disallow="pedestrian tram rail_urban rail rail_electric ship" speed="21.87" length="15.63" width="4.06" shape="470466.19,5545072.90 470465.08,5545073.20 470464.07,5545073.47 470463.15,5545073.69 470462.31,5545073.87 470461.54,5545074.02 470460.82,5545074.13 470460.15,5545074.21 470459.50,5545074.25 470458.87,5545074.26 470458.25,5545074.25 470457.62,5545074.20 470456.97,5545074.14 470456.28,5545074.04 470455.56,5545073.93 470454.77,5545073.79 470453.91,5545073.64 470452.98,5545073.47 470451.94,5545073.29 470450.80,5545073.09"/>
        <lane id=":18_1_1" index="1" disallow="pedestrian tram rail_urban rail rail_electric ship" speed="25.19" length="15.38" width="3.59" shape="470465.30,5545069.35 470464.19,5545069.60 470463.18,5545069.81 470462.27,5545070.00 470461.44,5545070.15 470460.67,5545070.27 470459.96,5545070.36 470459.30,5545070.43 470458.66,5545070.46 470458.04,5545070.47 470457.43,5545070.46 470456.81,5545070.42 470456.17,5545070.35 470455.50,5545070.27 470454.79,5545070.16 470454.02,5545070.03 470453.17,5545069.89 470452.25,5545069.72 470451.23,5545069.54 470450.11,5545069.35"/>
    </edge>
    <edge id=":2_0" function="internal">
        <lane id=":2_0_0" index="0" disallow="tram rail_urban rail rail_electric ship" speed="26.39" length="3.08" width="3.66" shape="470553.53,5545026.13 470556.32,5545027.44"/>
        <lane id=":2_0_1" index="1" disallow="tram rail_urban rail rail_electric ship" speed="26.39" length="3.05" width="3.97" shape="470552.07,5545029.29 470554.83,5545030.58"/>
    </edge>
    <edge id=":2_2" function="internal">
        <lane id=":2_2_0" index="0" disallow="tram rail_urban rail rail_electric ship" speed="16.67" length="3.03" width="3.97" shape="470550.57,5545032.52 470553.32,5545033.79"/>
    </edge>
    <edge id=":20_0" function="internal">
        <lane id=":20_0_0" index="0" disallow="pedestrian tram rail_urban rail rail_electric ship" speed="22.82" length="20.04" width="3.71" shape="470486.17,5545072.11 470485.39,5545071.96 470484.60,5545071.80 470483.80,5545071.66 470482.98,5545071.52 470482.14,5545071.40 470481.27,5545071.29 470480.38,5545071.21 470479.46,5545071.14 470478.50,5545071.11 470477.51,5545071.10 470476.48,5545071.12 470475.40,5545071.18 470474.28,5545071.28 470473.11,5545071.42 470471.88,5545071.60 470470.60,5545071.83 470469.26,5545072.11 470467.85,5545072.45 470466.38,5545072.84"/>
    </edge>
    <edge id=":20_1" function="internal">
        <lane id=":20_1_0" index="0" disallow="pedestrian tram rail_urban rail rail_electric ship" speed="35.44" length="19.91" width="3.71" shape="470484.47,5545065.02 470483.27,5545065.87 470482.17,5545066.63 470481.17,5545067.30 470480.25,5545067.90 470479.40,5545068.41 470478.59,5545068.87 470477.83,5545069.27 470477.09,5545069.63 470476.35,5545069.94 470475.61,5545070.23 470474.86,5545070.49 470474.06,5545070.74 470473.22,5545070.99 470472.32,5545071.24 470471.34,5545071.50 470470.28,5545071.79 470469.10,5545072.10 470467.81,5545072.45 470466.38,5545072.84"/>
        <lane id=":20_1_1" index="1" disallow="pedestrian tram rail_urban rail rail_electric ship" speed="26.05" length="19.78" width="3.49" shape="470483.33,5545061.39 470482.16,5545062.27 470481.09,5545063.06 470480.12,5545063.76 470479.23,5545064.39 470478.40,5545064.94 470477.61,5545065.43 470476.87,5545065.86 470476.14,5545066.24 470475.42,5545066.58 470474.70,5545066.89 470473.95,5545067.17 470473.17,5545067.42 470472.33,5545067.67 470471.44,5545067.91 470470.46,5545068.16 470469.39,5545068.41 470468.22,5545068.68 470466.93,5545068.97 470465.50,5545069.30"/>
    </edge>
    <edge id=":3_0" function="internal">
        <lane id=":3_0_0" index="0" disallow="tram rail_urban rail rail_electric ship" speed="16.67" length="8.01" width="3.97" shape="470665.43,5545077.74 470672.88,5545080.67"/>
    </edge>
    <edge id=":30_0" function="internal">
        <lane id=":30_0_0" index="0" disallow="tram rail_urban rail rail_electric ship" speed="17.01" length="15.90" width="3.90" shape="470495.05,5544991.52 470495.75,5544993.31 470495.94,5544993.77 470496.97,5544996.16 470498.03,5544998.57 470498.77,5544999.46 470499.52,5545000.30 470500.23,5545001.04 470500.95,5545001.75 470502.08,5545002.75 470503.31,5545003.71 470504.00,5545004.22"/>
    </edge>
    <edge id=":30_1" function="internal">
        <lane id=":30_1_0" index="0" disallow="pedestrian tram rail_urban rail rail_electric ship" speed="36.11" length="16.43" width="3.81" shape="470495.05,5544991.52 470495.93,5544993.87 470496.35,5544995.05 470497.18,5544997.49 470497.96,5544999.91 470498.93,5545002.93 470499.93,5545005.90 470500.34,5545007.07"/>
    </edge>
    <edge id=":30_2" function="internal">
        <lane id=":30_2_0" index="0" disallow="tram rail_urban rail rail_electric ship" speed="26.39" length="16.19" width="3.90" shape="470491.46,5544994.00 470492.84,5544995.20 470495.09,5544997.10 470501.40,5545002.28 470503.48,5545003.85 470504.00,5545004.23"/>
    </edge>
    <edge id=":30_3" function="internal">
        <lane id=":30_3_0" index="0" disallow="pedestrian tram rail_urban rail rail_electric ship" speed="19.66" length="15.93" width="3.81" shape="470491.44,5544994.02 470491.82,5544994.37 470492.52,5544995.03 470493.20,5544995.70 470494.79,5544997.53 470496.23,5544999.46 470498.04,5545002.31 470499.58,5545005.33 470500.14,5545006.66 470500.31,5545007.08"/>
        <lane id=":30_3_1" index="1" disallow="pedestrian tram rail_urban rail rail_electric ship" speed="22.50" length="14.21" width="3.59" shape="470488.81,5544996.80 470489.84,5544997.88 470493.44,5545002.55 470496.39,5545007.64 470496.78,5545008.49"/>
    </edge>
    <edge id=":31_0" function="internal">
        <lane id=":31_0_0" index="0" disallow="pedestrian tram rail_urban rail rail_electric ship" speed="36.11" length="6.00" width="5.95" shape="470415.16,5544987.64 470415.61,5544987.69 470416.01,5544987.75 470416.37,5544987.81 470416.69,5544987.87 470416.99,5544987.94 470417.27,5544988.00 470417.53,5544988.06 470417.77,5544988.12 470418.01,5544988.17 470418.25,5544988.22 470418.48,5544988.26 470418.73,5544988.29 470418.99,5544988.32 470419.26,5544988.33 470419.56,5544988.33 470419.89,5544988.32 470420.25,5544988.30 470420.65,5544988.26 470421.09,5544988.20"/>
    </edge>
    <edge id=":31_1" function="internal">
        <lane id=":31_1_0" index="0" disallow="pedestrian tram rail_urban rail rail_electric ship" speed="26.78" length="28.91" width="3.94" shape="470415.16,5544987.64 470427.57,5544987.26 470428.11,5544987.14 470430.04,5544986.69 470431.99,5544986.13 470434.28,5544985.38 470436.57,5544984.56 470438.80,5544983.70 470443.14,5544981.90"/>
    </edge>
    <edge id=":31_2" function="internal">
        <lane id=":31_2_0" index="0" disallow="pedestrian tram rail_urban rail rail_electric ship" speed="36.11" length="21.42" width="5.95" shape="470424.39,5544993.51 470438.82,5544977.68"/>
    </edge>
    <edge id=":31_3" function="internal">
        <lane id=":31_3_0" index="0" disallow="pedestrian tram rail_urban rail rail_electric ship" speed="27.12" length="22.26" width="3.94" shape="470424.39,5544993.51 470428.64,5544989.50 470428.77,5544989.39 470435.77,5544985.10 470437.33,5544984.35 470439.17,5544983.53 470443.14,5544981.90"/>
        <lane id=":31_3_1" index="1" disallow="pedestrian tram rail_urban rail rail_electric ship" speed="24.62" length="20.81" width="3.47" shape="470426.83,5544996.17 470430.98,5544992.50 470435.31,5544989.55 470438.74,5544987.70 470440.54,5544986.88 470444.43,5544985.41"/>
    </edge>
    <edge id=":4_0" function="internal">
        <lane id=":4_0_0" index="0" disallow="tram rail_urban rail rail_electric ship" speed="16.67" length="8.46" width="3.44" shape="470828.12,5545133.09 470836.46,5545134.49"/>
    </edge>
    <edge id=":5_0" function="internal">
        <lane id=":5_0_0" index="0" disallow="tram rail_urban rail rail_electric ship" speed="16.67" length="8.32" width="3.52" shape="470838.21,5545134.80 470846.44,5545136.04"/>
    </edge>
    <edge id=":6_0" function="internal">
        <lane id=":6_0_0" index="0" disallow="tram rail_urban rail rail_electric ship" speed="16.67" length="8.00" width="3.53" shape="471041.43,5545148.04 471042.02,5545148.10 471042.56,5545148.15 471043.05,5545148.19 471043.49,5545148.22 471043.89,5545148.24 471044.26,5545148.26 471044.61,5545148.27 471044.94,5545148.27 471045.26,5545148.27 471045.57,5545148.27 471045.89,5545148.26 471046.22,5545148.25 471046.57,5545148.24 471046.94,5545148.22 471047.35,5545148.21 471047.79,5545148.20 471048.28,5545148.19 471048.82,5545148.18 471049.42,5545148.17"/>
        <lane id=":6_0_1" index="1" disallow="tram rail_urban rail rail_electric ship" speed="16.67" length="7.99" width="3.53" shape="471041.43,5545148.22 471049.42,5545148.17"/>
        <lane id=":6_0_2" index="2" disallow="tram rail_urban rail rail_electric ship" speed="16.67" length="8.00" width="3.96" shape="471041.44,5545151.91 471049.44,5545151.85"/>
        <lane id=":6_0_3" index="3" disallow="tram rail_urban rail rail_electric ship" speed="16.67" length="8.01" width="3.81" shape="471041.45,5545155.69 471049.46,5545155.61"/>
    </edge>
    <edge id=":7_0" function="internal">
        <lane id=":7_0_0" index="0" disallow="tram rail_urban rail rail_electric ship" speed="16.67" length="8.02" width="3.89" shape="471351.51,5545128.05 471359.46,5545126.99"/>
        <lane id=":7_0_1" index="1" disallow="tram rail_urban rail rail_electric ship" speed="16.67" length="8.02" width="3.86" shape="471351.51,5545128.05 471359.48,5545127.14"/>
        <lane id=":7_0_2" index="2" disallow="tram rail_urban rail rail_electric ship" speed="16.67" length="8.03" width="3.95" shape="471351.93,5545131.72 471359.91,5545130.82"/>
        <lane id=":7_0_3" index="3" disallow="tram rail_urban rail rail_electric ship" speed="16.67" length="8.04" width="3.86" shape="471352.37,5545135.55 471360.36,5545134.67"/>
    </edge>

    <edge id="1365" from="16" to="29" priority="14" type="highway.motorway" spreadType="center" length="238.10">
        <lane id="1365_0" index="0" disallow="pedestrian moped bicycle tram rail_urban rail rail_electric ship" speed="36.11" length="238.10" width="4.50" customShape="1" shape="470408.08,5545043.07 470407.90,5545042.95 470407.59,5545042.75 470407.47,5545042.68 470404.96,5545041.16 470401.43,5545039.31 470398.27,5545037.90 470395.03,5545036.64 470393.64,5545036.14 470392.23,5545035.68 470387.90,5545034.39 470383.46,5545033.22 470382.02,5545032.84 470380.57,5545032.44 470378.65,5545031.90 470376.72,5545031.37 470373.83,5545030.59 470370.94,5545029.79 470366.14,5545028.42 470361.34,5545027.04 470356.07,5545025.51 470350.82,5545023.93 470328.98,5545016.35 470328.30,5545016.08 470322.77,5545013.85 470317.28,5545011.50 470300.47,5545003.49 470300.25,5545003.37 470292.78,5544999.38 470285.43,5544995.22 470278.12,5544990.91 470270.87,5544986.52 470261.86,5544981.06 470252.79,5544975.73 470245.83,5544971.75 470238.84,5544967.81 470238.40,5544967.56 470237.96,5544967.32 470235.76,5544966.10 470233.56,5544964.86 470231.80,5544963.87 470230.03,5544962.89 470227.81,5544961.69 470225.59,5544960.49 470221.14,5544958.07 470216.67,5544955.71 470211.72,5544953.18 470206.72,5544950.73 470204.43,5544949.65 470202.13,5544948.59 470201.35,5544948.23 470199.65,5544947.47 470199.50,5544947.40 470199.03,5544947.18 470198.60,5544946.99 470197.99,5544946.71 470197.44,5544946.49 470194.99,5544945.49 470192.53,5544944.50"/>
    </edge>
    <edge id="1443" from="3" to="4" priority="2" type="highway.living_street_speed_13.89_speed_27.78_speed_16.67" spreadType="center" length="163.69">
        <lane id="1443_0" index="0" disallow="tram rail_urban rail rail_electric ship" speed="16.67" length="163.69" width="3.61" customShape="1" shape="470674.26,5545077.22 470681.70,5545080.38 470692.85,5545085.10 470705.93,5545090.65 470718.99,5545096.18 470719.93,5545096.57 470720.86,5545096.97 470721.02,5545097.03 470721.17,5545097.10 470727.17,5545099.62 470733.15,5545102.15 470740.55,5545105.26 470747.95,5545108.29 470751.69,5545109.75 470755.45,5545111.17 470759.22,5545112.55 470763.02,5545113.88 470769.22,5545115.93 470775.45,5545117.89 470780.77,5545119.46 470786.09,5545120.94 470790.44,5545122.09 470794.82,5545123.18 470813.65,5545127.21 470816.29,5545127.71 470822.66,5545128.85 470828.66,5545129.85"/>
        <lane id="1443_1" index="1" disallow="tram rail_urban rail rail_electric ship" speed="16.67" length="164.43" width="3.97" customShape="1" shape="470672.88,5545080.67 470676.14,5545082.00 470683.12,5545084.90 470718.79,5545099.94 470719.49,5545100.23 470719.64,5545100.30 470719.80,5545100.36 470736.55,5545107.42 470753.38,5545114.17 470761.95,5545117.27 470770.60,5545120.12 470777.88,5545122.33 470785.19,5545124.37 470800.99,5545128.09 470804.81,5545128.88 470813.69,5545130.59 470822.58,5545132.17 470825.55,5545132.67 470828.12,5545133.09"/>
    </edge>
    <edge id="1444" from="5" to="6" priority="2" type="highway.living_street_speed_13.89_speed_27.78_speed_16.67" spreadType="center" length="195.40">